
.MODEL 2ñ213æ D (
+   IS =  1e-14
+   RS =  40
+   CJO =  0
+   VJ =  1
+   TT =  0
+   M =  0.5
+   BV =  13
+   IBV =  0.012
+   N =  1
+   EG =  1.11
+   XTI =  3
+   KF =  0
+   AF =  1
+   FC =  0.5
+   TNOM =  27
)
