
.MODEL ideal NPN (
+   IS =  1e-16
+   BF =  100
+   BR =  1
+   RB =  0
+   RE =  0
+   RC =  0
+   CJS =  0
+   CJE =  0
+   CJC =  0
+   VJE =  0.75
+   VJC =  0.75
+   TF =  0
+   TR =  0
+   MJE =  0.33
+   MJC =  0.33
+   VA =  1e+30
+   ISE =  0
+   IKF =  1e+30
+   NE =  1.5
+   NF =  1
+   NR =  1
+   VAR =  1e+30
+   IKR =  1e+30
+   ISC =  0
+   NC =  2
+   IRB =  1e+30
+   RBM =  0
+   XTF =  0
+   VTF =  1e+30
+   ITF =  0
+   PTF =  0
+   XCJC =  1
+   VJS =  0.75
+   MJS =  0
+   XTB =  0
+   EG =  1.11
+   XTI =  3
+   KF =  0
+   AF =  1
+   FC =  0.5
+   TNOM =  27
)

.MODEL KT3102B NPN (
+   IS =  1e-07
+   BF =  200
+   BR =  1
+   RB =  3
+   RE =  1
+   RC =  0.6
+   CJS =  0
+   CJE =  0
+   CJC =  0
+   VJE =  0.75
+   VJC =  0.75
+   TF =  0
+   TR =  0
+   MJE =  0.33
+   MJC =  0.33
+   VA =  1e+08
+   ISE =  0
+   IKF =  1e+08
+   NE =  1.5
+   NF =  1
+   NR =  1
+   VAR =  1e+08
+   IKR =  1e+08
+   ISC =  0
+   NC =  2
+   IRB =  1e+08
+   RBM =  0
+   XTF =  0
+   VTF =  1e+08
+   ITF =  0
+   PTF =  0
+   XCJC =  1
+   VJS =  0.75
+   MJS =  0
+   XTB =  0
+   EG =  1.11
+   XTI =  3
+   KF =  0
+   AF =  1
+   FC =  0.5
+   TNOM =  27
)

.MODEL KT639A NPN (
+   IS =  1e-07
+   BF =  40
+   BR =  1
+   RB =  2.4
+   RE =  1.5
+   RC =  0.7
+   CJS =  0
+   CJE =  0
+   CJC =  0
+   VJE =  0.75
+   VJC =  0.75
+   TF =  0
+   TR =  0
+   MJE =  0.33
+   MJC =  0.33
+   VA =  1e+08
+   ISE =  0
+   IKF =  1e+08
+   NE =  1.5
+   NF =  1
+   NR =  1
+   VAR =  1e+08
+   IKR =  1e+08
+   ISC =  0
+   NC =  2
+   IRB =  1e+08
+   RBM =  0
+   XTF =  0
+   VTF =  1e+08
+   ITF =  0
+   PTF =  0
+   XCJC =  1
+   VJS =  0.75
+   MJS =  0
+   XTB =  0
+   EG =  1.11
+   XTI =  3
+   KF =  0
+   AF =  1
+   FC =  0.5
+   TNOM =  27
)
